<?xml version="1.0" encoding="UTF-8"?>

<!-- generated on 2025-01-04 16:16:41 by Eclipse SUMO netedit Version 1.21.0
<neteditConfiguration xmlns:xsi="http://www.w3.org/2001/XMLSchema-instance" xsi:noNamespaceSchemaLocation="http://sumo.dlr.de/xsd/neteditConfiguration.xsd">

    <input>
        <sumocfg-file value="C:\Users\mauri\Sumo\desafio\test2.sumocfg"/>
        <additional-files value="C:\Users\mauri\Sumo\desafio\../2024-12-31-04-50-51/osm.poly.xml.gz"/>
        <route-files value="C:\Users\mauri\Sumo\desafio\rou.rou.xml"/>
        <sumo-net-file value="C:\Users\mauri\Sumo\desafio\net.net.xml"/>
    </input>

    <output>
        <output-file value="C:\Users\mauri\Sumo\desafio\net.net.xml"/>
        <output.street-names value="true"/>
    </output>

    <processing>
        <geometry.min-radius.fix.railways value="false"/>
        <geometry.max-grade.fix value="false"/>
        <offset.disable-normalization value="true"/>
        <lefthand value="0"/>
    </processing>

    <junctions>
        <no-turnarounds value="true"/>
        <junctions.corner-detail value="5"/>
        <junctions.limit-turn-speed value="5.50"/>
        <rectangular-lane-cut value="0"/>
    </junctions>

    <pedestrian>
        <walkingareas value="0"/>
    </pedestrian>

</neteditConfiguration>
-->

<net version="1.20" junctionCornerDetail="5" limitTurnSpeed="5.50" xmlns:xsi="http://www.w3.org/2001/XMLSchema-instance" xsi:noNamespaceSchemaLocation="http://sumo.dlr.de/xsd/net_file.xsd">

    <location netOffset="-350897.05,3699345.66" convBoundary="0.00,0.00,374.25,339.80" origBoundary="-70.603686,-33.423159,-70.599708,-33.420169" projParameter="+proj=utm +zone=19 +ellps=WGS84 +datum=WGS84 +units=m +no_defs"/>

    <type id="highway.footway" priority="1" numLanes="1" speed="2.78" allow="pedestrian" oneway="1" width="2.00"/>
    <type id="highway.living_street" priority="2" numLanes="1" speed="2.78" disallow="tram rail_urban rail rail_electric rail_fast ship container cable_car subway aircraft wheelchair scooter drone" oneway="0"/>
    <type id="highway.residential" priority="3" numLanes="1" speed="13.89" disallow="tram rail_urban rail rail_electric rail_fast ship container cable_car subway aircraft wheelchair scooter drone" oneway="0"/>
    <type id="highway.service" priority="1" numLanes="1" speed="5.56" allow="pedestrian delivery bicycle" oneway="0"/>
    <type id="highway.tertiary" priority="10" numLanes="1" speed="22.22" disallow="tram rail_urban rail rail_electric rail_fast ship container cable_car subway aircraft wheelchair scooter drone" oneway="0"/>

    <edge id=":1_Holanda_SanPio_0" function="internal">
        <lane id=":1_Holanda_SanPio_0_0" index="0" disallow="tram rail_urban rail rail_electric rail_fast ship container cable_car subway aircraft wheelchair scooter drone" speed="9.25" length="19.43" shape="27.33,240.81 23.75,238.54 21.93,234.98 21.85,230.14 23.52,224.01"/>
        <lane id=":1_Holanda_SanPio_0_1" index="1" disallow="tram rail_urban rail rail_electric rail_fast ship container cable_car subway aircraft wheelchair scooter drone" speed="8.01" length="14.30" shape="28.43,237.80 26.11,236.21 25.02,233.57 25.15,229.87 26.51,225.13"/>
    </edge>
    <edge id=":1_Holanda_SanPio_2" function="internal">
        <lane id=":1_Holanda_SanPio_2_0" index="0" disallow="tram rail_urban rail rail_electric rail_fast ship container cable_car subway aircraft wheelchair scooter drone" speed="22.22" length="23.45" shape="12.16,244.84 20.52,222.88"/>
        <lane id=":1_Holanda_SanPio_2_1" index="1" disallow="tram rail_urban rail rail_electric rail_fast ship container cable_car subway aircraft wheelchair scooter drone" speed="22.22" length="23.45" shape="15.17,245.92 23.52,224.01"/>
        <lane id=":1_Holanda_SanPio_2_2" index="2" disallow="tram rail_urban rail rail_electric rail_fast ship container cable_car subway aircraft wheelchair scooter drone" speed="22.22" length="23.45" shape="18.18,247.00 26.51,225.13"/>
    </edge>
    <edge id=":253299976_0" function="internal">
        <lane id=":253299976_0_0" index="0" disallow="tram rail_urban rail rail_electric rail_fast ship container cable_car subway aircraft wheelchair scooter drone" speed="13.89" length="15.02" shape="273.15,332.13 268.91,330.82 266.31,329.10 263.77,327.14 259.72,325.13"/>
        <lane id=":253299976_0_1" index="1" disallow="tram rail_urban rail rail_electric rail_fast ship container cable_car subway aircraft wheelchair scooter drone" speed="13.89" length="15.02" shape="273.74,328.99 269.65,327.71 267.16,326.01 264.73,324.08 260.83,322.13"/>
    </edge>
    <edge id=":253299976_2" function="internal">
        <lane id=":253299976_2_0" index="0" disallow="tram rail_urban rail rail_electric rail_fast ship container cable_car subway aircraft wheelchair scooter drone" speed="7.68" length="14.18" shape="273.74,328.99 270.03,327.72 267.77,325.56 266.96,322.52 267.61,318.59"/>
        <lane id=":253299976_2_1" index="1" disallow="tram rail_urban rail rail_electric rail_fast ship container cable_car subway aircraft wheelchair scooter drone" speed="6.97" length="11.48" shape="273.74,328.99 271.41,328.00 270.12,326.09 269.87,323.28 270.66,319.55"/>
    </edge>
    <edge id=":2_Holanda_Lota_0" function="internal">
        <lane id=":2_Holanda_Lota_0_0" index="0" disallow="tram rail_urban rail rail_electric rail_fast ship container cable_car subway aircraft wheelchair scooter drone" speed="10.22" length="22.10" shape="85.91,48.41 88.71,43.40 92.64,40.35 97.68,39.24 103.85,40.08"/>
        <lane id=":2_Holanda_Lota_0_1" index="1" disallow="tram rail_urban rail rail_electric rail_fast ship container cable_car subway aircraft wheelchair scooter drone" speed="9.10" length="17.29" shape="88.91,49.53 91.09,45.67 94.17,43.32 98.14,42.49 103.02,43.17"/>
    </edge>
    <edge id=":3102308471_0" function="internal">
        <lane id=":3102308471_0_0" index="0" disallow="tram rail_urban rail rail_electric rail_fast ship container cable_car subway aircraft wheelchair scooter drone" speed="13.89" length="5.06" shape="259.47,325.04 254.72,323.31"/>
        <lane id=":3102308471_0_1" index="1" disallow="tram rail_urban rail rail_electric rail_fast ship container cable_car subway aircraft wheelchair scooter drone" speed="13.89" length="5.06" shape="260.58,322.04 255.81,320.30"/>
    </edge>
    <edge id=":343469241_0" function="internal">
        <lane id=":343469241_0_0" index="0" disallow="tram rail_urban rail rail_electric rail_fast ship container cable_car subway aircraft wheelchair scooter drone" speed="22.22" length="0.10" shape="211.00,164.12 211.00,164.12"/>
        <lane id=":343469241_0_1" index="1" disallow="tram rail_urban rail rail_electric rail_fast ship container cable_car subway aircraft wheelchair scooter drone" speed="22.22" length="0.10" shape="208.02,162.96 208.02,162.96"/>
    </edge>
    <edge id=":3_AvLuisThayer_Lota_0" function="internal">
        <lane id=":3_AvLuisThayer_Lota_0_0" index="0" disallow="tram rail_urban rail rail_electric rail_fast ship container cable_car subway aircraft wheelchair scooter drone" speed="8.73" length="17.24" shape="247.23,68.35 246.75,72.72 248.00,76.27 250.96,78.99 255.65,80.90"/>
    </edge>
    <edge id=":3_AvLuisThayer_Lota_1" function="internal">
        <lane id=":3_AvLuisThayer_Lota_1_0" index="0" disallow="tram rail_urban rail rail_electric rail_fast ship container cable_car subway aircraft wheelchair scooter drone" speed="22.22" length="23.60" shape="247.23,68.35 245.42,74.62 243.79,79.72 241.99,84.76 239.65,90.86"/>
        <lane id=":3_AvLuisThayer_Lota_1_1" index="1" disallow="tram rail_urban rail rail_electric rail_fast ship container cable_car subway aircraft wheelchair scooter drone" speed="22.22" length="23.60" shape="244.15,67.49 242.35,73.71 240.76,78.71 239.00,83.65 236.67,89.69"/>
    </edge>
    <edge id=":3_AvLuisThayer_Lota_3" function="internal">
        <lane id=":3_AvLuisThayer_Lota_3_0" index="0" disallow="tram rail_urban rail rail_electric rail_fast ship container cable_car subway aircraft wheelchair scooter drone" speed="22.22" length="23.95" shape="232.52,74.68 255.65,80.90"/>
        <lane id=":3_AvLuisThayer_Lota_3_1" index="1" disallow="tram rail_urban rail rail_electric rail_fast ship container cable_car subway aircraft wheelchair scooter drone" speed="22.22" length="23.95" shape="231.69,77.77 254.82,83.99"/>
    </edge>
    <edge id=":3_AvLuisThayer_Lota_5" function="internal">
        <lane id=":3_AvLuisThayer_Lota_5_0" index="0" disallow="tram rail_urban rail rail_electric rail_fast ship container cable_car subway aircraft wheelchair scooter drone" speed="7.93" length="15.10" shape="231.69,77.77 235.28,79.40 237.30,81.93 237.76,85.36 236.67,89.69"/>
    </edge>
    <edge id=":4_AvHernandoDeAguirre_Lota_0" function="internal">
        <lane id=":4_AvHernandoDeAguirre_Lota_0_0" index="0" disallow="tram rail_urban rail rail_electric rail_fast ship container cable_car subway aircraft wheelchair scooter drone" speed="11.13" length="26.76" shape="319.16,97.99 326.83,99.08 333.03,97.83 337.75,94.24 340.99,88.31"/>
        <lane id=":4_AvHernandoDeAguirre_Lota_0_1" index="1" disallow="tram rail_urban rail rail_electric rail_fast ship container cable_car subway aircraft wheelchair scooter drone" speed="12.07" length="31.64" shape="318.33,101.08 327.31,102.33 334.59,100.80 340.16,96.48 344.01,89.38"/>
    </edge>
    <edge id=":4_AvHernandoDeAguirre_Lota_2" function="internal">
        <lane id=":4_AvHernandoDeAguirre_Lota_2_0" index="0" disallow="tram rail_urban rail rail_electric rail_fast ship container cable_car subway aircraft wheelchair scooter drone" speed="13.89" length="33.34" shape="330.07,119.87 340.99,88.31"/>
        <lane id=":4_AvHernandoDeAguirre_Lota_2_1" index="1" disallow="tram rail_urban rail rail_electric rail_fast ship container cable_car subway aircraft wheelchair scooter drone" speed="13.89" length="33.34" shape="333.12,120.83 344.01,89.38"/>
    </edge>
    <edge id=":5582459517_0" function="internal">
        <lane id=":5582459517_0_0" index="0" disallow="tram rail_urban rail rail_electric rail_fast ship container cable_car subway aircraft wheelchair scooter drone" speed="2.78" length="4.67" shape="258.65,5.04 257.67,3.99 257.47,3.11 258.04,2.43 259.39,1.93"/>
    </edge>
    <edge id=":5582460334_0" function="internal">
        <lane id=":5582460334_0_0" index="0" disallow="tram rail_urban rail rail_electric rail_fast ship container cable_car subway aircraft wheelchair scooter drone" speed="13.89" length="5.22" shape="174.85,294.47 169.92,292.78"/>
        <lane id=":5582460334_0_1" index="1" disallow="tram rail_urban rail rail_electric rail_fast ship container cable_car subway aircraft wheelchair scooter drone" speed="13.89" length="5.22" shape="175.90,291.45 170.95,289.75"/>
    </edge>
    <edge id=":6077988970_0" function="internal">
        <lane id=":6077988970_0_0" index="0" allow="pedestrian delivery bicycle" speed="3.65" length="4.67" shape="374.66,25.49 375.62,26.58 375.80,27.45 375.20,28.12 373.84,28.59"/>
    </edge>
    <edge id=":6077988976_0" function="internal">
        <lane id=":6077988976_0_0" index="0" allow="pedestrian delivery bicycle" speed="5.56" length="4.65" shape="373.50,28.50 369.02,27.24"/>
    </edge>
    <edge id=":6077988976_1" function="internal">
        <lane id=":6077988976_1_0" index="0" allow="pedestrian delivery bicycle" speed="3.65" length="4.67" shape="373.50,28.50 372.55,27.41 372.37,26.54 372.96,25.87 374.33,25.40"/>
    </edge>
    <edge id=":6077988976_2" function="internal">
        <lane id=":6077988976_2_0" index="0" allow="pedestrian delivery bicycle" speed="5.56" length="4.58" shape="369.92,24.17 374.33,25.40"/>
    </edge>
    <edge id=":6077988976_3" function="internal">
        <lane id=":6077988976_3_0" index="0" allow="pedestrian delivery bicycle" speed="3.65" length="4.67" shape="369.92,24.17 370.85,25.27 371.00,26.15 370.40,26.81 369.02,27.24"/>
    </edge>
    <edge id=":6077988977_0" function="internal">
        <lane id=":6077988977_0_0" index="0" allow="pedestrian delivery bicycle" speed="3.65" length="4.67" shape="368.83,27.18 367.90,26.08 367.74,25.20 368.35,24.54 369.73,24.11"/>
    </edge>
    <edge id=":6077988977_1" function="internal">
        <lane id=":6077988977_1_0" index="0" allow="pedestrian delivery bicycle" speed="6.83" length="9.64" shape="362.21,28.20 363.44,25.81 365.10,24.33 367.19,23.76 369.73,24.11"/>
    </edge>
    <edge id=":610408791_0" function="internal">
        <lane id=":610408791_0_0" index="0" disallow="tram rail_urban rail rail_electric rail_fast ship container cable_car subway aircraft wheelchair scooter drone" speed="6.72" length="10.00" shape="259.59,1.98 262.05,2.98 263.55,4.59 264.11,6.81 263.71,9.63"/>
        <lane id=":610408791_0_1" index="1" disallow="tram rail_urban rail rail_electric rail_fast ship container cable_car subway aircraft wheelchair scooter drone" speed="5.94" length="7.57" shape="259.59,1.98 260.69,2.65 261.23,4.00 261.21,6.04 260.63,8.77"/>
    </edge>
    <edge id=":610408791_2" function="internal">
        <lane id=":610408791_2_0" index="0" disallow="tram rail_urban rail rail_electric rail_fast ship container cable_car subway aircraft wheelchair scooter drone" speed="2.78" length="4.67" shape="259.59,1.98 260.57,3.03 260.77,3.90 260.20,4.59 258.84,5.09"/>
    </edge>
    <edge id=":cluster_255469249_5582460321_9111644922_0" function="internal">
        <lane id=":cluster_255469249_5582460321_9111644922_0_0" index="0" disallow="tram rail_urban rail rail_electric rail_fast ship container cable_car subway aircraft wheelchair scooter drone" speed="13.89" length="16.44" shape="165.28,291.20 149.80,285.55"/>
        <lane id=":cluster_255469249_5582460321_9111644922_0_1" index="1" disallow="tram rail_urban rail rail_electric rail_fast ship container cable_car subway aircraft wheelchair scooter drone" speed="13.89" length="16.44" shape="166.31,288.17 150.90,282.54"/>
    </edge>
    <edge id=":cluster_255469249_5582460321_9111644922_2" function="internal">
        <lane id=":cluster_255469249_5582460321_9111644922_2_0" index="0" disallow="tram rail_urban rail rail_electric rail_fast ship container cable_car subway aircraft wheelchair scooter drone" speed="8.58" length="16.20" shape="164.29,283.52 162.44,286.05 159.41,287.23 155.20,287.06 149.80,285.55"/>
        <lane id=":cluster_255469249_5582460321_9111644922_2_1" index="1" disallow="tram rail_urban rail rail_electric rail_fast ship container cable_car subway aircraft wheelchair scooter drone" speed="7.23" length="11.18" shape="161.26,282.47 160.12,283.74 158.01,284.18 154.94,283.78 150.90,282.54"/>
    </edge>

    <edge id="-206336699" from="610408791" to="5582459517" name="Pasaje Luis Thayer Ojeda Interior" priority="2" type="highway.living_street">
        <lane id="-206336699_0" index="0" disallow="tram rail_urban rail rail_electric rail_fast ship container cable_car subway aircraft wheelchair scooter drone" speed="2.78" length="0.20" shape="258.84,5.09 258.65,5.04">
            <param key="origId" value="206336699"/>
        </lane>
    </edge>
    <edge id="-647104828#0" from="6077988976" to="6077988977" priority="1" type="highway.service">
        <lane id="-647104828#0_0" index="0" allow="pedestrian delivery bicycle" speed="5.56" length="0.20" shape="369.02,27.24 368.83,27.18">
            <param key="origId" value="647104828"/>
        </lane>
    </edge>
    <edge id="-647104828#1" from="6077988970" to="6077988976" priority="1" type="highway.service">
        <lane id="-647104828#1_0" index="0" allow="pedestrian delivery bicycle" speed="5.56" length="0.35" shape="373.84,28.59 373.50,28.50">
            <param key="origId" value="647104828"/>
        </lane>
    </edge>
    <edge id="1004105112" from="2481672102" to="9264801139" priority="1" type="highway.footway" spreadType="center">
        <lane id="1004105112_0" index="0" allow="pedestrian" speed="2.78" length="56.78" width="2.00" shape="352.20,282.39 299.13,262.21">
            <param key="origId" value="1004105112"/>
        </lane>
    </edge>
    <edge id="1004113754" from="9264859632" to="9264859636" priority="1" type="highway.footway" spreadType="center" shape="367.39,200.56 353.21,188.63 330.95,182.32 324.75,195.94 318.07,193.61">
        <lane id="1004113754_0" index="0" allow="pedestrian" speed="2.78" length="61.19" width="2.00" shape="367.39,200.56 353.21,188.63 330.95,182.32 324.75,195.94 320.45,194.44">
            <param key="origId" value="1004113754"/>
        </lane>
    </edge>
    <edge id="1004122688#0" from="6077988976" to="9264884627" priority="1" type="highway.footway" spreadType="center" shape="371.75,26.37 367.95,36.98 347.93,93.41">
        <lane id="1004122688#0_0" index="0" allow="pedestrian" speed="2.78" length="63.88" width="2.00" shape="370.14,30.86 367.95,36.98 348.77,91.06">
            <param key="origId" value="1004122688"/>
        </lane>
    </edge>
    <edge id="1004122688#1" from="9264884627" to="4_AvHernandoDeAguirre_Lota" priority="1" type="highway.footway" spreadType="center" shape="347.93,93.41 349.90,98.67 347.30,107.22">
        <lane id="1004122688#1_0" index="0" allow="pedestrian" speed="2.78" length="11.07" width="2.00" shape="348.62,95.25 349.90,98.67 347.74,105.77">
            <param key="origId" value="1004122688 985614004"/>
        </lane>
        <param key="origTo" value="5582460376"/>
    </edge>
    <edge id="1004122690#0" from="5582460365" to="5582460366" priority="1" type="highway.footway" spreadType="center">
        <lane id="1004122690#0_0" index="0" allow="pedestrian" speed="2.78" length="22.61" width="2.00" shape="340.19,65.23 331.87,86.25">
            <param key="origId" value="1004122690"/>
        </lane>
    </edge>
    <edge id="1004122690#1" from="5582460366" to="5582460370" priority="1" type="highway.footway" spreadType="center">
        <lane id="1004122690#1_0" index="0" allow="pedestrian" speed="2.78" length="5.68" width="2.00" shape="329.11,89.47 323.86,91.65">
            <param key="origId" value="1004122690"/>
        </lane>
    </edge>
    <edge id="1018438308" from="9393541186" to="5582460542" priority="1" type="highway.footway" spreadType="center">
        <lane id="1018438308_0" index="0" allow="pedestrian" speed="2.78" length="0.85" width="2.00" shape="94.84,47.94 95.68,48.08">
            <param key="origId" value="1018438308"/>
        </lane>
    </edge>
    <edge id="1018438310" from="9393541188" to="5582460500" priority="1" type="highway.footway" spreadType="center">
        <lane id="1018438310_0" index="0" allow="pedestrian" speed="2.78" length="0.81" width="2.00" shape="83.54,31.94 83.78,31.17">
            <param key="origId" value="1018438310"/>
        </lane>
    </edge>
    <edge id="1018438311" from="9393541189" to="5582460540" priority="1" type="highway.footway" spreadType="center">
        <lane id="1018438311_0" index="0" allow="pedestrian" speed="2.78" length="2.56" width="2.00" shape="102.00,37.23 102.71,34.78">
            <param key="origId" value="1018438311"/>
        </lane>
    </edge>
    <edge id="1018438313" from="9393541191" to="5582460500" priority="1" type="highway.footway" spreadType="center">
        <lane id="1018438313_0" index="0" allow="pedestrian" speed="2.78" length="3.22" width="2.00" shape="89.99,29.88 86.83,29.31">
            <param key="origId" value="1018438313"/>
        </lane>
    </edge>
    <edge id="1018699529" from="5582460545" to="1_Holanda_SanPio" priority="1" type="highway.footway" spreadType="center" shape="27.97,227.43 26.06,235.99 25.34,238.38">
        <lane id="1018699529_0" index="0" allow="pedestrian" speed="2.78" length="0.20" width="2.00" shape="27.64,228.93 27.59,229.12">
            <param key="origId" value="1018699529 1018699531"/>
        </lane>
        <param key="origTo" value="3102308477"/>
    </edge>
    <edge id="1018699530" from="5582460545" to="9395948317" priority="1" type="highway.footway" spreadType="center">
        <lane id="1018699530_0" index="0" allow="pedestrian" speed="2.78" length="0.20" width="2.00" shape="26.40,227.63 26.20,227.66">
            <param key="origId" value="1018699530"/>
        </lane>
    </edge>
    <edge id="1018699531#1" from="1_Holanda_SanPio" to="5582460529" priority="1" type="highway.footway" spreadType="center" shape="25.34,238.38 24.67,240.56 23.13,246.27">
        <lane id="1018699531#1_0" index="0" allow="pedestrian" speed="2.78" length="0.20" width="2.00" shape="23.45,245.09 23.40,245.28">
            <param key="origId" value="1018699531 985597754"/>
        </lane>
        <param key="origFrom" value="3102308477"/>
    </edge>
    <edge id="1018699532" from="9395948323" to="5582460524" priority="1" type="highway.footway" spreadType="center">
        <lane id="1018699532_0" index="0" allow="pedestrian" speed="2.78" length="3.43" width="2.00" shape="17.69,225.58 14.35,224.80">
            <param key="origId" value="1018699532"/>
        </lane>
    </edge>
    <edge id="1018699533" from="5582460530" to="9395931115" priority="1" type="highway.footway" spreadType="center">
        <lane id="1018699533_0" index="0" allow="pedestrian" speed="2.78" length="2.54" width="2.00" shape="8.39,240.16 10.75,241.13">
            <param key="origId" value="1018699533"/>
        </lane>
    </edge>
    <edge id="1018699534" from="5582460529" to="1_Holanda_SanPio" priority="1" type="highway.footway" spreadType="center" shape="23.13,246.27 20.21,245.06 16.08,243.39">
        <lane id="1018699534_0" index="0" allow="pedestrian" speed="2.78" length="0.20" width="2.00" shape="22.17,245.87 21.99,245.80">
            <param key="origId" value="1018699534 985597755"/>
        </lane>
        <param key="origTo" value="3102308475"/>
    </edge>
    <edge id="1018699535" from="5582460530" to="9395948322" priority="1" type="highway.footway" spreadType="center">
        <lane id="1018699535_0" index="0" allow="pedestrian" speed="2.78" length="1.23" width="2.00" shape="6.90,236.93 7.28,235.76">
            <param key="origId" value="1018699535"/>
        </lane>
    </edge>
    <edge id="1018699536#1" from="1_Holanda_SanPio" to="9395948322" priority="1" type="highway.footway" spreadType="center" shape="8.69,232.47 7.61,234.74">
        <lane id="1018699536#1_0" index="0" allow="pedestrian" speed="2.78" length="0.20" width="2.00" shape="8.19,233.51 8.11,233.70">
            <param key="origId" value="1018699536"/>
        </lane>
        <param key="origFrom" value="5582460507"/>
    </edge>
    <edge id="107630585#0" from="9111675475" to="1_Holanda_SanPio" name="Avenida Holanda" priority="10" type="highway.tertiary" spreadType="center" shape="0.81,285.81 16.08,243.39">
        <lane id="107630585#0_0" index="0" disallow="tram rail_urban rail rail_electric rail_fast ship container cable_car subway aircraft wheelchair scooter drone" speed="22.22" length="42.39" shape="-2.20,284.73 12.16,244.84">
            <param key="origId" value="107630585"/>
        </lane>
        <lane id="107630585#0_1" index="1" disallow="tram rail_urban rail rail_electric rail_fast ship container cable_car subway aircraft wheelchair scooter drone" speed="22.22" length="42.39" shape="0.81,285.81 15.17,245.92">
            <param key="origId" value="107630585"/>
        </lane>
        <lane id="107630585#0_2" index="2" disallow="tram rail_urban rail rail_electric rail_fast ship container cable_car subway aircraft wheelchair scooter drone" speed="22.22" length="42.39" shape="3.82,286.89 18.18,247.00">
            <param key="origId" value="107630585"/>
        </lane>
        <param key="origTo" value="3102308475"/>
    </edge>
    <edge id="107630585#3" from="1_Holanda_SanPio" to="2_Holanda_Lota" name="Avenida Holanda" priority="10" type="highway.tertiary" spreadType="center" shape="22.47,226.80 55.28,139.41 89.94,46.78">
        <lane id="107630585#3_0" index="0" disallow="tram rail_urban rail rail_electric rail_fast ship container cable_car subway aircraft wheelchair scooter drone" speed="22.22" length="186.33" shape="20.52,222.88 52.28,138.29 85.91,48.41">
            <param key="origId" value="107630585 625487753"/>
        </lane>
        <lane id="107630585#3_1" index="1" disallow="tram rail_urban rail rail_electric rail_fast ship container cable_car subway aircraft wheelchair scooter drone" speed="22.22" length="186.33" shape="23.52,224.01 55.28,139.41 88.91,49.53">
            <param key="origId" value="107630585 625487753"/>
        </lane>
        <lane id="107630585#3_2" index="2" disallow="tram rail_urban rail rail_electric rail_fast ship container cable_car subway aircraft wheelchair scooter drone" speed="22.22" length="186.33" shape="26.51,225.13 58.28,140.53 91.91,50.65">
            <param key="origId" value="107630585 625487753"/>
        </lane>
        <param key="origFrom" value="3102308479"/>
        <param key="origTo" value="5582460457"/>
    </edge>
    <edge id="122161151#0" from="253299976" to="4_AvHernandoDeAguirre_Lota" name="Hernando de Aguirre" priority="3" type="highway.residential" spreadType="center" shape="266.93,326.09 332.44,117.66">
        <lane id="122161151#0_0" index="0" disallow="tram rail_urban rail rail_electric rail_fast ship container cable_car subway aircraft wheelchair scooter drone" speed="13.89" length="208.30" shape="267.61,318.59 330.07,119.87">
            <param key="origId" value="122161151"/>
        </lane>
        <lane id="122161151#0_1" index="1" disallow="tram rail_urban rail rail_electric rail_fast ship container cable_car subway aircraft wheelchair scooter drone" speed="13.89" length="208.30" shape="270.66,319.55 333.12,120.83">
            <param key="origId" value="122161151"/>
        </lane>
        <param key="origTo" value="5582460398"/>
    </edge>
    <edge id="206336699" from="5582459517" to="610408791" name="Pasaje Luis Thayer Ojeda Interior" priority="2" type="highway.living_street">
        <lane id="206336699_0" index="0" disallow="tram rail_urban rail rail_electric rail_fast ship container cable_car subway aircraft wheelchair scooter drone" speed="2.78" length="0.20" shape="259.39,1.93 259.59,1.98">
            <param key="origId" value="206336699"/>
        </lane>
    </edge>
    <edge id="212501918#1" from="4_AvHernandoDeAguirre_Lota" to="6077988977" name="Hernando de Aguirre" priority="3" type="highway.residential" spreadType="center" shape="341.67,91.20 365.23,24.46">
        <lane id="212501918#1_0" index="0" disallow="tram rail_urban rail rail_electric rail_fast ship container cable_car subway aircraft wheelchair scooter drone" speed="13.89" length="63.75" shape="340.99,88.31 362.21,28.20">
            <param key="origId" value="212501918"/>
        </lane>
        <lane id="212501918#1_1" index="1" disallow="tram rail_urban rail rail_electric rail_fast ship container cable_car subway aircraft wheelchair scooter drone" speed="13.89" length="63.75" shape="344.01,89.38 365.23,29.26">
            <param key="origId" value="212501918"/>
        </lane>
        <param key="origFrom" value="5582460371"/>
    </edge>
    <edge id="23395365#0" from="253299976" to="3102308471" name="San Pío X" priority="3" type="highway.residential" spreadType="center">
        <lane id="23395365#0_0" index="0" disallow="tram rail_urban rail rail_electric rail_fast ship container cable_car subway aircraft wheelchair scooter drone" speed="13.89" length="0.27" shape="259.72,325.13 259.47,325.04">
            <param key="origId" value="23395365"/>
        </lane>
        <lane id="23395365#0_1" index="1" disallow="tram rail_urban rail rail_electric rail_fast ship container cable_car subway aircraft wheelchair scooter drone" speed="13.89" length="0.27" shape="260.83,322.13 260.58,322.04">
            <param key="origId" value="23395365"/>
        </lane>
    </edge>
    <edge id="23395365#1" from="3102308471" to="5582460334" name="San Pío X" priority="3" type="highway.residential" spreadType="center" shape="257.84,322.73 175.89,293.14 172.93,292.11">
        <lane id="23395365#1_0" index="0" disallow="tram rail_urban rail rail_electric rail_fast ship container cable_car subway aircraft wheelchair scooter drone" speed="13.89" length="84.94" shape="254.72,323.31 175.35,294.65 174.85,294.47">
            <param key="origId" value="23395365"/>
        </lane>
        <lane id="23395365#1_1" index="1" disallow="tram rail_urban rail rail_electric rail_fast ship container cable_car subway aircraft wheelchair scooter drone" speed="13.89" length="84.94" shape="255.81,320.30 176.43,291.63 175.90,291.45">
            <param key="origId" value="23395365"/>
        </lane>
    </edge>
    <edge id="23395365#2" from="5582460334" to="cluster_255469249_5582460321_9111644922" name="San Pío X" priority="3" type="highway.residential" spreadType="center" shape="172.93,292.11 160.82,287.99">
        <lane id="23395365#2_0" index="0" disallow="tram rail_urban rail rail_electric rail_fast ship container cable_car subway aircraft wheelchair scooter drone" speed="13.89" length="4.90" shape="169.92,292.78 165.28,291.20">
            <param key="origId" value="23395365"/>
        </lane>
        <lane id="23395365#2_1" index="1" disallow="tram rail_urban rail rail_electric rail_fast ship container cable_car subway aircraft wheelchair scooter drone" speed="13.89" length="4.90" shape="170.95,289.75 166.31,288.17">
            <param key="origId" value="23395365"/>
        </lane>
        <param key="origTo" value="255469249"/>
    </edge>
    <edge id="377924859" from="3813350651" to="5582460523" priority="1" type="highway.footway" spreadType="center">
        <lane id="377924859_0" index="0" allow="pedestrian" speed="2.78" length="19.40" width="2.00" shape="26.99,295.08 8.79,288.34">
            <param key="origId" value="377924859"/>
        </lane>
    </edge>