<?xml version="1.0" encoding="UTF-8"?>

<!-- generated on 2025-01-04 16:16:41 by Eclipse SUMO netedit Version 1.21.0
-->

<routes xmlns:xsi="http://www.w3.org/2001/XMLSchema-instance" xsi:noNamespaceSchemaLocation="http://sumo.dlr.de/xsd/routes_file.xsd">
    <!-- Vehicles, persons and containers (sorted by depart) -->
    <flow id="f_0" begin="0.00" from="E0" to="212501918#1" via="107630585#3" end="1000.00" vehsPerHour="500"/>
    <flow id="f_1" begin="0.00" from="107630585#0" to="212501918#1" end="1000.00" vehsPerHour="500"/>
    <flow id="f_2" begin="0.00" from="E0" to="212501918#1" end="1000.00" vehsPerHour="250"/>
    <flow id="f_3" begin="0.00" from="107630585#0" to="212501918#1" via="655696058#1" end="1000.00" vehsPerHour="100"/>
    <flow id="f_4" begin="0.00" from="442335110#0" to="212501918#1" end="1000.00" vehsPerHour="250"/>
</routes>
